external_data/tamu_texas_td/transmission/Texas7k_20220923.m
% Case saved by PowerWorld Simulator, version 23, build date August 24, 2022
% Case Information Header = 4 lines
% This is a synthetic electric grid designed by researchers at Texas A&M University, created for use in the ARPA-E PERFORM 
% program
% Reference: A. B. Birchfield, T. Xu, K. M. Gegner, K. S. Shetye, and T. J. Overbye, "Grid structural characteristics as validation 
% criteria for synthetic networks," IEEE Transactions on Power Systems, vol. 32, no. 4, pp. 3258-3265, Jul. 2017.
function mpc = Texas7k_20220923
mpc.version = '2';
mpc.baseMVA =  100.00;

%% bus data 
mpc.bus = [
110001	1	0.22	0.08	0.00	0.00	7	1.0325819	-1.950734	138.00	1	1.100	0.900	56.37	0.10	0	0
110002	1	0.00	0.00	0.00	0.00	7	1.0325819	-1.950734	13.80	1	1.100	0.900	56.37	0.10	0	0
110003	1	0.00	0.00	0.00	0.00	7	1.0325819	-1.950734	13.80	1	1.100	0.900	56.37	0.10	0	0
110004	1	0.00	0.00	0.00	0.00	7	1.0325819	-1.950734	1.00	1	1.100	0.900	56.37	0.10	0	0
110005	1	79.70	38.66	0.00	0.00	7	1.0188703	-11.008804	138.00	1	1.100	0.900	57.06	0.05	0	0
110006	1	0.00	0.00	0.00	0.00	7	1.0188703	-11.008804	13.80	1	1.100	0.900	57.06	0.05	0	0
110007	1	0.00	0.00	0.00	0.00	7	1.0188703	-11.008804	13.80	1	1.100	0.900	57.06	0.05	0	0
110008	1	0.00	0.00	0.00	0.00	7	1.0188703	-11.008804	1.00	1	1.100	0.900	57.06	0.05	0	0
110009	1	5.90	2.03	0.00	0.00	7	1.0230749	-2.565798	138.00	1	1.100	0.900	56.79	0.09	0	0
110010	1	0.00	0.00	0.00	0.00	7	1.0230749	-2.565798	13.80	1	1.100	0.900	56.79	0.09	0	0
110011	1	0.00	0.00	0.00	0.00	7	1.0230749	-2.565798	13.80	1	1.100	0.900	56.79	0.09	0	0
110012	1	0.00	0.00	0.00	0.00	7	1.0230749	-2.565798	1.00	1	1.100	0.900	56.79	0.09	0	0
110013	1	15.30	3.54	0.00	0.00	7	1.0066678	-11.859344	138.00	1	1.100	0.900	56.93	0.09	0	0
110014	1	0.00	0.00	0.00	0.00	7	1.0066678	-11.859344	13.80	1	1.100	0.900	56.93	0.09	0	0
110015	1	0.00	0.00	0.00	0.00	7	1.0066678	-11.859344	13.80	1	1.100	0.900	56.93	0.09	0	0
110016	1	0.00	0.00	0.00	0.00	7	1.0066678	-11.859344	1.00	1	1.100	0.900	56.93	0.09	0	0
110017	1	11.00	2.71	0.00	0.00	7	1.0204181	-15.877000	138.00	1	1.100	0.900	57.00	0.13	0	0
110018	1	0.00	0.00	0.00	0.00	7	1.0204181	-15.877000	13.80	1	1.100	0.900	57.00	0.13	0	0
110019	1	0.00	0.00	0.00	0.00	7	1.0204181	-15.877000	13.80	1	1.100	0.900	57.00	0.13	0	0
110020	1	0.00	0.00	0.00	0.00	7	1.0204181	-15.877000	1.00	1	1.100	0.900	57.00	0.13	0	0
110021	1	8.30	1.88	0.00	0.00	7	1.0197084	-5.478431	138.00	1	1.100	0.900	56.71	0.11	0	0
110022	1	0.00	0.00	0.00	0.00	7	1.0197084	-5.478431	22.00	1	1.100	0.900	56.71	0.11	0	0
110023	1	0.00	0.00	0.00	0.00	7	1.0197084	-5.478431	22.00	1	1.100	0.900	56.71	0.11	0	0
110024	1	0.00	0.00	0.00	0.00	7	1.0197084	-5.478431	1.00	1	1.100	0.900	56.71	0.11	0	0
110025	1	7.30	2.11	0.00	0.00	7	1.0211368	-5.545278	138.00	1	1.100	0.900	56.73	0.10	0	0
110026	1	0.00	0.00	0.00	0.00	7	1.0211368	-5.545278	13.80	1	1.100	0.900	56.73	0.10	0	0
110027	1	0.00	0.00	0.00	0.00	7	1.0211368	-5.545278	13.80	1	1.100	0.900	56.73	0.10	0	0
110028	1	0.00	0.00	0.00	0.00	7	1.0211368	-5.545278	1.00	1	1.100	0.900	56.73	0.10	0	0
110029	1	7.70	2.03	0.00	0.00	7	1.0251713	-8.235666	138.00	1	1.100	0.900	57.02	0.04	0	0
110030	1	0.00	0.00	0.00	0.00	7	1.0251713	-8.235666	13.80	1	1.100	0.900	57.02	0.04	0	0
110031	1	0.00	0.00	0.00	0.00	7	1.0251713	-8.235666	13.80	1	1.100	0.900	57.02	0.04	0	0
110032	1	0.00	0.00	0.00	0.00	7	1.0251713	-8.235666	1.00	1	1.100	0.900	57.02	0.04	0	0
110033	1	7.50	1.80	0.00	0.00	7	1.0108246	-10.250077	138.00	1	1.100	0.900	57.01	0.08	0	0
110034	1	0.00	0.00	0.00	0.00	7	1.0108246	-10.250077	13.80	1	1.100	0.900	57.01	0.08	0	0
110035	1	0.00	0.00	0.00	0.00	7	1.0108246	-10.250077	13.80	1	1.100	0.900	57.01	0.08	0	0
110036	1	0.00	0.00	0.00	0.00	7	1.0108246	-10.250077	1.00	1	1.100	0.900	57.01	0.08	0	0
110037	1	4.25	0.68	0.00	0.00	7	1.0243146	-5.629289	138.00	1	1.100	0.900	56.43	0.18	0	0
110038	1	0.00	0.00	0.00	0.00	7	1.0243146	-5.629289	13.80	1	1.100	0.900	56.43	0.18	0	0
110039	1	0.00	0.00	0.00	0.00	7	1.0243146	-5.629289	13.80	1	1.100	0.900	56.43	0.18	0	0
110040	1	0.00	0.00	0.00	0.00	7	1.0243146	-5.629289	1.00	1	1.100	0.900	56.43	0.18	0	0
110041	1	2.56	0.53	0.00	0.00	7	1.0254588	-4.225788	138.00	1	1.100	0.900	56.59	0.10	0	0
110042	1	0.00	0.00	0.00	0.00	7	1.0254588	-4.225788	24.00	1	1.100	0.900	56.59	0.10	0	0
110043	1	0.00	0.00	0.00	0.00	7	1.0254588	-4.225788	24.00	1	1.100	0.900	56.59	0.10	0	0
110044	1	0.00	0.00	0.00	0.00	7	1.0254588	-4.225788	1.00	1	1.100	0.900	56.59	0.10	0	0
110045	1	1.73	0.53	0.00	0.00	7	1.0216418	-6.410727	138.00	1	1.100	0.900	56.60	0.15	0	0
110046	1	0.00	0.00	0.00	0.00	7	1.0216418	-6.410727	13.80	1	1.100	0.900	56.60	0.15	0	0
110047	1	0.00	0.00	0.00	0.00	7	1.0216418	-6.410727	13.80	1	1.100	0.900	56.60	0.15	0	0
110048	1	0.00	0.00	0.00	0.00	7	1.0216418	-6.410727	1.00	1	1.100	0.900	56.60	0.15	0	0
110049	1	3.09	0.30	0.00	0.00	7	1.0187701	-4.409263	138.00	1	1.100	0.900	56.68	0.12	0	0
110050	1	0.00	0.00	0.00	0.00	7	1.0187701	-4.409263	18.00	1	1.100	0.900	56.68	0.12	0	0
110051	1	0.00	0.00	0.00	0.00	7	1.0187701	-4.409263	18.00	1	1.100	0.900	56.68	0.12	0	0
110052	1	0.00	0.00	0.00	0.00	7	1.0187701	-4.409263	1.00	1	1.100	0.900	56.68	0.12	0	0
110053	1	4.25	0.68	0.00	0.00	7	1.0199808	-4.825827	138.00	1	1.100	0.900	56.64	0.13	0	0
110054	1	0.00	0.00	0.00	0.00	7	1.0199808	-4.825827	13.80	1	1.100	0.900	56.64	0.13	0	0
110055	1	0.00	0.00	0.00	0.00	7	1.0199808	-4.825827	13.80	1	1.100	0.900	56.64	0.13	0	0
110056	1	0.00	0.00	0.00	0.00	7	1.0199808	-4.825827	1.00	1	1.100	0.900	56.64	0.13	0	0
110057	1	0.61	0.21	0.00	0.00	7	1.0208291	-5.572472	138.00	1	1.100	0.900	56.63	0.14	0	0
110058	1	0.00	0.00	0.00	0.00	7	1.0208291	-5.572472	24.00	1	1.100	0.900	56.63	0.14	0	0
110059	1	0.00	0.00	0.00	0.00	7	1.0208291	-5.572472	24.00	1	1.100	0.900	56.63	0.14	0	0
110060	1	0.00	0.00	0.00	0.00	7	1.0208291	-5.572472	1.00	1	1.100	0.900	56.63	0.14	0	0
110061	1	1.58	0.38	0.00	0.00	7	1.0227074	-5.114470	138.00	1	1.100	0.900	56.68	0.10	0	0
110062	1	0.00	0.00	0.00	0.00	7	1.0227074	-5.114470	18.00	1	1.100	0.900	56.68	0.10	0	0
110063	1	0.00	0.00	0.00	0.00	7	1.0227074	-5.114470	18.00	1	1.100	0.900	56.68	0.10	0	0
110064	1	0.00	0.00	0.00	0.00	7	1.0227074	-5.114470	1.00	1	1.100	0.900	56.68	0.10	0	0
110065	1	3.24	1.05	0.00	0.00	7	1.0203827	-11.798560	138.00	1	1.100	0.900	57.09	0.04	0	0
110066	1	0.00	0.00	0.00	0.00	7	1.0203827	-11.798560	24.00	1	1.100	0.900	57.09	0.04	0	0
110067	1	0.00	0.00	0.00	0.00	7	1.0203827	-11.798560	24.00	1	1.100	0.900	57.09	0.04	0	0
110068	1	0.00	0.00	0.00	0.00	7	1.0203827	-11.798560	1.00	1	1.100	0.900	57.09	0.04	0	0
110069	1	10.40	2.26	0.00	0.00	7	1.0176739	-9.172022	138.00	1	1.100	0.900	56.99	0.07	0	0
110070	1	0.00	0.00	0.00	0.00	7	1.0176739	-9.172022	13.80	1	1.100	0.900	56.99	0.07	0	0
110071	1	0.00	0.00	0.00	0.00	7	1.0176739	-9.172022	13.80	1	1.100	0.900	56.99	0.07	0	0
110072	1	0.00	0.00	0.00	0.00	7	1.0176739	-9.172022	1.00	1	1.100	0.900	56.99	0.07	0	0
110073	1	5.70	1.13	0.00	0.00	7	1.0219206	-6.505312	138.00	1	1.100	0.900	56.93	0.06	0	0
110074	1	0.00	0.00	0.00	0.00	7	1.0219206	-6.505312	13.80	1	1.100	0.900	56.93	0.06	0	0
110075	1	0.00	0.00	0.00	0.00	7	1.0219206	-6.505312	13.80	1	1.100	0.900	56.93	0.06	0	0
110076	1	0.00	0.00	0.00	0.00	7	1.0219206	-6.505312	1.00	1	1.100	0.900	56.93	0.06	0	0
110077	1	2.41	0.45	0.00	0.00	7	1.0162645	-7.032708	138.00	1	1.100	0.900	56.84	0.09	0	0
110078	1	0.00	0.00	0.00	0.00	7	1.0162645	-7.032708	18.00	1	1.100	0.900	56.84	0.09	0	0
110079	1	0.00	0.00	0.00	0.00	7	1.0162645	-7.032708	18.00	1	1.100	0.900	56.84	0.09	0	0
110080	1	0.00	0.00	0.00	0.00	7	1.0162645	-7.032708	1.00	1	1.100	0.900	56.84	0.09	0	0
110081	1	4.70	0.22	0.00	0.00	7	1.0086852	-3.074050	138.00	1	1.100	0.900	56.79	0.09	0	0
110082	1	0.00	0.00	0.00	0.00	7	1.0086852	-3.074050	24.00	1	1.100	0.900	56.79	0.09	0	0
110083	1	0.00	0.00	0.00	0.00	7	1.0086852	-3.074050	24.00	1	1.100	0.900	56.79	0.09	0	0
110084	1	0.00	0.00	0.00	0.00	7	1.0086852	-3.074050	1.00	1	1.100	0.900	56.79	0.09	0	0
110085	1	4.07	1.05	0.00	0.00	7	1.0226785	-8.952481	138.00	1	1.100	0.900	56.96	0.08	0	0
110086	1	0.00	0.00	0.00	0.00	7	1.0226785	-8.952481	18.00	1	1.100	0.900	56.96	0.08	0	0
110087	1	0.00	0.00	0.00	0.00	7	1.0226785	-8.952481	18.00	1	1.100	0.900	56.96	0.08	0	0
110088	1	0.00	0.00	0.00	0.00	7	1.0226785	-8.952481	1.00	1	1.100	0.900	56.96	0.08	0	0
110089	1	3.89	0.38	0.00	0.00	7	1.0183764	-1.151420	138.00	1	1.100	0.900	56.72	0.09	0	0
110090	1	0.00	0.00	0.00	0.00	7	1.0183764	-1.151420	18.00	1	1.100	0.900	56.72	0.09	0	0
110091	1	0.00	0.00	0.00	0.00	7	1.0183764	-1.151420	18.00	1	1.100	0.900	56.72	0.09	0	0
110092	1	0.00	0.00	0.00	0.00	7	1.0183764	-1.151420	1.00	1	1.100	0.900	56.72	0.09	0	0
110093	1	0.58	0.14	0.00	0.00	7	1.0028774	-2.264251	138.00	1	1.100	0.900	56.72	0.10	0	0
110094	1	0.00	0.00	0.00	0.00	7	0.9580488	-5.749919	13.80	1	1.100	0.900	56.73	0.11	0	0
110095	1	0.00	0.00	0.00	0.00	7	0.9580488	-5.749919	13.80	1	1.100	0.900	56.73	0.11	0	0
110096	1	115.00	75.20	0.00	0.00	7	0.9580488	-5.749919	1.00	1	1.100	0.900	56.73	0.11	0	0
110097	1	1.95	0.45	0.00	0.00	7	1.0127675	-3.612579	138.00	1	1.100	0.900	56.83	0.08	0	0
110098	1	0.00	0.00	0.00	0.00	7	1.0127675	-3.612579	13.80	1	1.100	0.900	56.83	0.08	0	0
110099	1	0.00	0.00	0.00	0.00	7	1.0127675	-3.612579	13.80	1	1.100	0.900	56.83	0.08	0	0
110100	1	0.00	0.00	0.00	0.00	7	1.0127675	-3.612579	1.00	1	1.100	0.900	56.83	0.08	0	0
110101	1	0.99	0.30	0.00	26.60	7	1.0282843	-0.421648	138.00	1	1.100	0.900	56.72	0.09	0	0
110102	1	0.00	0.00	0.00	0.00	7	1.0282843	-0.421648	13.80	1	1.100	0.900	56.72	0.09	0	0
110103	1	0.00	0.00	0.00	0.00	7	1.0282843	-0.421648	13.80	1	1.100	0.900	56.72	0.09	0	0
110104	1	0.00	0.00	0.00	0.00	7	1.0282843	-0.421648	1.00	1	1.100	0.900	56.72	0.09	0	0
110105	1	4.80	0.30	0.00	0.00	7	1.0224563	-2.281388	138.00	1	1.100	0.900	56.77	0.10	0	0
110106	1	0.00	0.00	0.00	0.00	7	1.0224563	-2.281388	18.00	1	1.100	0.900	56.77	0.10	0	0
110107	1	0.00	0.00	0.00	0.00	7	1.0224563	-2.281388	18.00	1	1.100	0.900	56.77	0.10	0	0
110108	1	0.00	0.00	0.00	0.00	7	1.0224563	-2.281388	1.00	1	1.100	0.900	56.77	0.10	0	0
110109	1	0.09	0.01	0.00	36.90	7	1.0297220	-10.454248	138.00	1	1.100	0.900	56.99	0.08	0	0
110110	1	0.00	0.00	0.00	0.00	7	1.0297220	-10.454248	13.80	1	1.100	0.900	56.99	0.08	0	0
110111	1	0.00	0.00	0.00	0.00	7	1.0297220	-10.454248	13.80	1	1.100	0.900	56.99	0.08	0	0
110112	1	0.00	0.00	0.00	0.00	7	1.0297220	-10.454248	1.00	1	1.100	0.900	56.99	0.08	0	0
110113	1	0.66	0.22	0.00	0.00	7	1.0316412	-1.425947	138.00	1	1.100	0.900	56.38	0.10	0	0
110114	1	0.00	0.00	0.00	0.00	7	1.0316412	-1.425947	18.00	1	1.100	0.900	56.38	0.10	0	0
110115	1	0.00	0.00	0.00	0.00	7	1.0316412	-1.425947	18.00	1	1.100	0.900	56.38	0.10	0	0
110116	1	0.00	0.00	0.00	0.00	7	1.0316412	-1.425947	1.00	1	1.100	0.900	56.38	0.10	0	0
110117	1	4.70	0.75	0.00	0.00	7	1.0074273	-3.600652	138.00	1	1.100	0.900	56.78	0.10	0	0
110118	1	0.63	0.22	0.00	0.00	7	1.0206817	-7.104363	138.00	1	1.100	0.900	56.58	0.17	0	0
110119	1	1.95	0.68	0.00	0.00	7	1.0106469	-8.258039	138.00	1	1.100	0.900	56.95	0.08	0	0
110120	1	2.18	0.60	0.00	0.00	7	1.0206413	-5.266683	138.00	1	1.100	0.900	56.93	0.06	0	0
110121	1	0.49	0.16	0.00	0.00	7	1.0167546	-5.690018	138.00	1	1.100	0.900	56.90	0.08	0	0
110122	1	0.92	0.30	0.00	0.00	7	1.0192039	0.758760	138.00	1	1.100	0.900	56.64	0.09	0	0
110123	1	111.14	79.15	0.00	0.00	7	0.9997053	-12.353416	138.00	1	1.100	0.900	56.85	0.12	0	0
110124	1	0.46	0.09	0.00	0.00	7	1.0297855	-5.369831	138.00	1	1.100	0.900	56.33	0.19	0	0
110125	1	26.80	4.33	0.00	0.00	7	1.0187279	-9.300295	138.00	1	1.100	0.900	56.99	0.07	0	0
110126	1	0.00	0.00	0.00	76.84	7	1.0333672	-1.992631	345.00	1	1.100	0.900	56.98	0.03	0	0
110127	1	222.50	81.80	0.00	0.00	7	1.0233062	-4.777871	138.00	1	1.100	0.900	56.94	0.05	0	0
110128	1	41.40	6.70	0.00	0.00	7	1.0199058	-6.137026	138.00	1	1.100	0.900	56.80	0.09	0	0
110129	1	37.70	8.26	0.00	0.00	7	1.0249828	-18.311878	138.00	1	1.100	0.900	57.08	0.11	0	0
110130	1	10.30	1.13	0.00	0.00	7	1.0152967	-9.077044	138.00	1	1.100	0.900	56.66	0.17	0	0
110131	1	15.50	2.56	0.00	0.00	7	1.0305602	-15.510721	138.00	1	1.100	0.900	57.10	0.09	0	0
110132	1	100.50	9.37	0.00	0.00	7	1.0180311	-10.945369	138.00	1	1.100	0.900	57.04	0.05	0	0
110133	1	6.30	1.95	0.00	0.00	7	1.0184779	-3.434522	138.00	1	1.100	0.900	56.67	0.12	0	0
110134	1	4.60	0.60	0.00	0.00	7	1.0200269	-5.927904	138.00	1	1.100	0.900	56.77	0.09	0	0
110135	1	21.80	6.70	0.00	0.00	7	1.0145858	-7.193308	138.00	1	1.100	0.900	56.92	0.08	0	0
110136	1	9.50	3.09	0.00	0.00	7	1.0193921	0.124386	138.00	1	1.100	0.900	56.68	0.09	0	0
110137	1	14.20	2.34	0.00	0.00	7	1.0230289	-16.075817	138.00	1	1.100	0.900	57.03	0.12	0	0
110138	1	14.90	5.30	0.00	0.00	7	1.0136990	-6.577852	138.00	1	1.100	0.900	56.91	0.08	0	0
110139	1	0.48	0.08	0.00	0.00	7	1.0309330	-0.988278	138.00	1	1.100	0.900	56.39	0.10	0	0
110140	1	9.40	1.35	0.00	0.00	7	1.0234197	-16.602704	138.00	1	1.100	0.900	57.04	0.12	0	0
110141	1	18.10	4.97	0.00	0.00	7	1.0288729	-16.887524	138.00	1	1.100	0.900	57.08	0.10	0	0
110142	1	21.46	16.50	0.00	0.00	7	1.0177504	-18.024961	138.00	1	1.100	0.900	57.05	0.12	0	0
110143	1	6.30	0.90	0.00	0.00	7	1.0298821	-17.089917	138.00	1	1.100	0.900	57.14	0.08	0	0
110144	1	68.94	33.90	0.00	100.80	7	1.0306355	-17.752396	138.00	1	1.100	0.900	57.08	0.11	0	0
110145	1	1.88	0.38	0.00	0.00	7	1.0079401	-12.318708	138.00	1	1.100	0.900	56.78	0.19	0	0
110146	1	0.96	0.22	0.00	0.00	7	1.0170159	-12.861699	138.00	1	1.100	0.900	56.84	0.16	0	0
110147	1	6.50	0.83	0.00	0.00	7	1.0208669	-18.648688	138.00	1	1.100	0.900	57.08	0.11	0	0
110148	1	2.86	0.22	0.00	0.00	7	1.0205716	-16.340199	138.00	1	1.100	0.900	57.02	0.13	0	0
110149	1	9.80	3.54	0.00	0.00	7	1.0263655	-16.801181	138.00	1	1.100	0.900	57.06	0.11	0	0
110150	1	5.20	1.58	0.00	0.00	7	1.0268866	-18.467201	138.00	1	1.100	0.900	57.54	-0.02	0	0
110151	1	6.40	2.03	0.00	0.00	7	1.0138350	-9.540488	138.00	1	1.100	0.900	56.69	0.16	0	0
110152	1	4.07	0.53	0.00	0.00	7	1.0220732	-16.220732	138.00	1	1.100	0.900	57.03	0.12	0	0
110153	1	5.40	1.95	0.00	0.00	7	1.0238905	-19.481669	138.00	1	1.100	0.900	57.48	0.00	0	0
110154	1	5.70	1.73	0.00	0.00	7	1.0246350	-10.249331	138.00	1	1.100	0.900	58.36	-0.28	0	0
110155	1	4.90	1.73	0.00	36.60	7	1.0225692	-11.434079	138.00	1	1.100	0.900	58.28	-0.27	0	0
110156	1	4.60	0.75	0.00	0.00	7	1.0251420	-16.013281	138.00	1	1.100	0.900	57.06	0.11	0	0
110157	1	6.30	0.68	0.00	0.00	7	1.0170566	-14.855554	138.00	1	1.100	0.900	56.94	0.14	0	0
110158	1	2.86	0.75	0.00	0.00	7	1.0185988	-20.429619	138.00	1	1.100	0.900	57.14	0.10	0	0
110159	1	2.79	0.98	0.00	0.00	7	1.0301036	-16.035132	138.00	1	1.100	0.900	57.09	0.09	0	0
110160	1	0.00	0.00	0.00	45.82	7	1.0354716	-11.037051	345.00	1	1.100	0.900	57.14	0.06	0	0
110161	1	11.14	6.62	0.00	0.00	7	1.0344439	-14.113549	138.00	1	1.100	0.900	57.12	0.07	0	0
110162	1	0.00	0.00	0.00	0.00	7	1.0241611	-26.000840	138.00	1	1.100	0.900	57.43	-0.01	0	0
110163	1	42.10	12.60	0.00	0.00	7	1.0184509	-28.381292	69.00	1	1.100	0.900	57.44	-0.01	0	0
110164	1	30.20	11.50	0.00	0.00	7	1.0090362	-28.803073	69.00	1	1.100	0.900	57.47	-0.02	0	0
110165	1	0.00	0.00	0.00	0.00	7	1.0139311	-25.105478	138.00	1	1.100	0.900	57.49	-0.02	0	0
110166	1	37.90	5.70	0.00	0.00	7	1.0191206	-28.345715	69.00	1	1.100	0.900	57.47	-0.02	0	0
110167	1	25.70	3.24	0.00	0.00	7	1.0160945	-29.121696	69.00	1	1.100	0.900	57.45	-0.01	0	0
110168	1	26.40	5.60	0.00	0.00	7	1.0067222	-29.740441	69.00	1	1.100	0.900	57.44	-0.01	0	0
110169	1	0.00	0.00	0.00	0.00	7	1.0199991	-27.074104	138.00	1	1.100	0.900	57.44	-0.01	0	0
110170	1	40.20	11.00	0.00	0.00	7	1.0254342	-29.051108	69.00	1	1.100	0.900	57.45	-0.01	0	0
110171	1	4.90	1.58	0.00	0.00	7	1.0152728	-28.707013	69.00	1	1.100	0.900	57.47	-0.02	0	0
110172	1	0.00	0.00	0.00	0.00	7	1.0044377	-26.600154	138.00	1	1.100	0.900	57.48	-0.02	0	0
110173	1	54.70	11.60	0.00	0.00	7	1.0066150	-28.700822	69.00	1	1.100	0.900	57.47	-0.02	0	0
110174	1	0.00	0.00	0.00	0.00	7	1.0200691	-26.721555	138.00	1	1.100	0.900	57.43	-0.01	0	0
110175	1	43.10	11.70	0.00	0.00	7	1.0037854	-29.286305	69.00	1	1.100	0.900	57.44	-0.01	0	0
110176	1	0.00	0.00	0.00	0.00	7	1.0096788	-25.997845	138.00	1	1.100	0.900	57.49	-0.02	0	0
110177	1	76.90	18.75	0.00	0.00	7	1.0121442	-28.391917	69.00	1	1.100	0.900	57.47	-0.02	0	0
110178	1	33.30	10.30	0.00	140.20	7	1.0288343	-29.232379	69.00	1	1.100	0.900	57.46	-0.02	0	0
110179	1	23.40	7.10	0.00	0.00	7	1.0108220	-29.114270	69.00	1	1.100	0.900	57.44	-0.01	0	0
110180	1	10.00	2.18	0.00	0.00	7	1.0314401	-25.742623	69.00	1	1.100	0.900	57.43	-0.04	0	0
110181	1	17.20	10.58	0.00	0.00	7	1.0188804	-24.943556	69.00	1	1.100	0.900	57.34	0.03	0	0
110182	1	6.40	1.95	0.00	0.00	7	1.0171379	-25.679007	69.00	1	1.100	0.900	57.36	0.01	0	0
110183	1	9.20	3.31	0.00	0.00	7	1.0231858	-25.455923	69.00	1	1.100	0.900	57.35	0.01	0	0
110184	1	5.30	1.28	0.00	0.00	7	1.0207841	-25.430299	69.00	1	1.100	0.900	57.36	0.01	0	0
110185	1	3.89	1.13	0.00	0.00	7	1.0269564	-23.970577	69.00	1	1.100	0.900	57.28	0.07	0	0
110186	1	5.30	0.83	0.00	0.00	7	1.0260711	-24.472228	69.00	1	1.100	0.900	57.30	0.05	0	0
110187	1	16.90	7.94	0.00	100.10	7	1.0373198	-25.767926	69.00	1	1.100	0.900	57.42	-0.03	0	0
110188	1	0.00	0.00	0.00	0.00	7	1.0239279	-21.367497	138.00	1	1.100	0.900	57.26	0.04	0	0
110189	1	7.90	1.20	0.00	0.00	7	1.0315234	-24.471231	69.00	1	1.100	0.900	57.30	0.04	0	0
110190	1	0.00	0.00	0.00	0.00	7	1.0253577	-22.021527	18.00	1	1.100	0.900	57.27	0.04	0	0
110191	1	0.00	0.00	0.00	0.00	7	1.0253577	-22.021527	1.00	1	1.100	0.900	57.27	0.04	0	0
110192	1	6.40	1.58	0.00	0.00	7	1.0301681	-25.634088	69.00	1	1.100	0.900	57.43	-0.03	0	0
110193	1	5.70	1.43	0.00	0.00	7	1.0180339	-24.969822	69.00	1	1.100	0.900	57.36	0.00	0	0
110194	1	3.61	0.15	0.00	93.30	7	1.0249929	-25.459470	69.00	1	1.100	0.900	57.36	0.01	0	0
110195	1	4.80	1.50	0.00	0.00	7	1.0356327	-25.538338	69.00	1	1.100	0.900	57.38	-0.00	0	0
110196	1	2.41	0.53	0.00	0.00	7	1.0253156	-25.445846	69.00	1	1.100	0.900	57.35	0.01	0	0
110197	1	8.00	2.71	0.00	0.00	7	1.0189724	-24.836216	69.00	1	1.100	0.900	57.33	0.02	0	0
110198	1	16.10	8.28	0.00	0.00	7	1.0163000	-25.174798	69.00	1	1.100	0.900	57.37	-0.01	0	0
110199	1	4.80	1.50	0.00	0.00	7	1.0275507	-24.586600	69.00	1	1.100	0.900	57.31	0.04	0	0
110200	1	7.30	2.11	0.00	0.00	7	1.0193392	-25.352777	69.00	1	1.100	0.900	57.36	0.01	0	0
...
];

%% generator data 
mpc.gen = [
111180	487.00	-7.61	379.71	-250.07	1.0384	895.20	1	746.00	87.52	0.00	0.00	0.00	0.00	0.00	0.00	0	0	0	0	746.0000	0	0	0	0
111181	487.00	-7.61	381.24	-231.35	1.0374	898.80	1	749.00	303.73	0.00	0.00	0.00	0.00	0.00	0.00	0	0	0	0	749.0000	0	0	0	0
111183	54.00	20.13	27.49	-15.80	1.0400	64.80	1	54.00	15.73	0.00	0.00	0.00	0.00	0.00	0.00	0	0	0	0	54.0000	0	0	0	0
111184	54.00	27.49	27.49	-18.36	1.0400	64.80	1	54.00	6.30	0.00	0.00	0.00	0.00	0.00	0.00	0	0	0	0	54.0000	0	0	0	0
111185	54.00	20.84	27.49	-16.92	1.0400	64.80	1	54.00	23.18	0.00	0.00	0.00	0.00	0.00	0.00	0	0	0	0	54.0000	0	0	0	0
111186	50.00	19.65	25.45	-14.50	1.0400	60.00	1	50.00	23.19	0.00	0.00	0.00	0.00	0.00	0.00	0	0	0	0	50.0000	0	0	0	0
111187	63.98	26.45	32.58	-17.09	1.0400	76.80	1	64.00	21.89	0.00	0.00	0.00	0.00	0.00	0.00	0	0	0	0	64.0000	0	0	0	0
111188	54.00	15.82	27.49	-18.67	1.0400	64.80	1	54.00	26.28	0.00	0.00	0.00	0.00	0.00	0.00	0	0	0	0	54.0000	0	0	0	0
111190	27.60	6.33	52.94	-32.25	1.0400	124.80	1	104.00	27.60	0.00	0.00	0.00	0.00	0.00	0.00	0	0	0	0	104.0000	0	0	0	0
111191	48.44	8.77	52.94	-33.75	1.0400	124.80	1	104.00	48.44	0.00	0.00	0.00	0.00	0.00	0.00	0	0	0	0	104.0000	0	0	0	0
111192	20.52	10.95	29.01	-16.93	1.0400	68.40	1	57.00	20.52	0.00	0.00	0.00	0.00	0.00	0.00	0	0	0	0	57.0000	0	0	0	0
111193	14.65	7.33	29.01	-15.98	1.0400	68.40	1	57.00	14.65	0.00	0.00	0.00	0.00	0.00	0.00	0	0	0	0	57.0000	0	0	0	0
111194	28.41	9.59	29.01	-16.85	1.0400	68.40	1	57.00	28.41	0.00	0.00	0.00	0.00	0.00	0.00	0	0	0	0	57.0000	0	0	0	0
111195	24.09	6.11	29.01	-16.91	1.0400	68.40	1	57.00	24.09	0.00	0.00	0.00	0.00	0.00	0.00	0	0	0	0	57.0000	0	0	0	0
111196	14.15	8.15	29.01	-15.26	1.0400	68.40	1	57.00	14.15	0.00	0.00	0.00	0.00	0.00	0.00	0	0	0	0	57.0000	0	0	0	0
111197	13.05	5.44	29.01	-18.09	1.0400	68.40	1	57.00	13.05	0.00	0.00	0.00	0.00	0.00	0.00	0	0	0	0	57.0000	0	0	0	0
111198	13.03	5.28	29.01	-17.45	1.0400	68.40	1	57.00	13.03	0.00	0.00	0.00	0.00	0.00	0.00	0	0	0	0	57.0000	0	0	0	0
111199	25.07	5.12	29.01	-18.57	1.0400	68.40	1	57.00	25.07	0.00	0.00	0.00	0.00	0.00	0.00	0	0	0	0	57.0000	0	0	0	0
111200	58.00	7.70	29.52	-15.64	1.0400	69.60	1	58.00	25.87	0.00	0.00	0.00	0.00	0.00	0.00	0	0	0	0	58.0000	0	0	0	0
111201	58.00	4.98	29.52	-14.74	1.0400	69.60	1	58.00	25.90	0.00	0.00	0.00	0.00	0.00	0.00	0	0	0	0	58.0000	0	0	0	0
111202	58.00	5.89	29.52	-16.54	1.0400	69.60	1	58.00	10.82	0.00	0.00	0.00	0.00	0.00	0.00	0	0	0	0	58.0000	0	0	0	0
111203	58.00	9.36	29.52	-15.65	1.0400	69.60	1	58.00	8.97	0.00	0.00	0.00	0.00	0.00	0.00	0	0	0	0	58.0000	0	0	0	0
111204	58.00	7.48	29.52	-16.45	1.0400	69.60	1	58.00	17.69	0.00	0.00	0.00	0.00	0.00	0.00	0	0	0	0	58.0000	0	0	0	0
111205	58.00	7.57	29.52	-19.79	1.0400	69.60	1	58.00	26.75	0.00	0.00	0.00	0.00	0.00	0.00	0	0	0	0	58.0000	0	0	0	0
111206	0.00	0.00	6.62	-3.80	1.0400	15.60	0	13.00	3.03	0.00	0.00	0.00	0.00	0.00	0.00	0	0	0	0	13.0000	0	0	0	0
111208	664.00	10.93	309.42	-167.63	1.0387	796.80	1	664.00	149.20	0.00	0.00	0.00	0.00	0.00	0.00	0	0	0	0	664.0000	0	0	0	0
111209	663.00	10.93	308.96	-223.78	1.0386	795.60	1	663.00	76.51	0.00	0.00	0.00	0.00	0.00	0.00	0	0	0	0	663.0000	0	0	0	0
111210	0.00	0.00	284.26	-206.12	1.0400	732.00	0	610.00	224.35	0.00	0.00	0.00	0.00	0.00	0.00	0	0	0	0	610.0000	0	0	0	0
111211	0.00	0.00	268.88	-194.27	1.0400	692.40	0	577.00	183.07	0.00	0.00	0.00	0.00	0.00	0.00	0	0	0	0	577.0000	0	0	0	0
111212	0.00	0.00	6.62	-3.76	1.0400	15.60	0	13.00	1.49	0.00	0.00	0.00	0.00	0.00	0.00	0	0	0	0	13.0000	0	0	0	0
111212	552.00	10.93	280.97	-182.79	1.0383	662.40	1	552.00	165.98	0.00	0.00	0.00	0.00	0.00	0.00	0	0	0	0	552.0000	0	0	0	0
111213	246.00	10.93	138.96	-70.38	1.0419	327.60	1	273.00	34.50	0.00	0.00	0.00	0.00	0.00	0.00	0	0	0	0	273.0000	0	0	0	0
111214	141.16	0.32	86.02	-58.46	1.0400	202.80	1	169.00	44.20	0.00	0.00	0.00	0.00	0.00	0.00	0	0	0	0	169.0000	0	0	0	0
111215	141.16	10.93	86.02	-49.07	1.0434	202.80	1	169.00	29.81	0.00	0.00	0.00	0.00	0.00	0.00	0	0	0	0	169.0000	0	0	0	0
111217	1280.00	134.84	471.04	-365.47	1.0470	1536.00	1	1280.00	201.18	0.00	0.00	0.00	0.00	0.00	0.00	0	0	0	0	1280.0000	0	0	0	0
111218	1280.00	134.84	471.04	-382.86	1.0476	1536.00	1	1280.00	178.29	0.00	0.00	0.00	0.00	0.00	0.00	0	0	0	0	1280.0000	0	0	0	0
111220	34.89	14.03	41.23	-21.32	1.0400	97.20	1	81.00	34.89	0.00	0.00	0.00	0.00	0.00	0.00	0	0	0	0	81.0000	0	0	0	0
111221	81.00	14.41	41.23	-21.95	1.0400	97.20	1	81.00	13.80	0.00	0.00	0.00	0.00	0.00	0.00	0	0	0	0	81.0000	0	0	0	0
111223	0.00	0.00	15.27	-10.32	1.0400	36.00	0	30.00	3.97	0.00	0.00	0.00	0.00	0.00	0.00	0	0	0	0	30.0000	0	0	0	0
111231	20.03	23.79	38.17	-25.11	1.0400	90.00	1	75.00	20.03	0.00	0.00	0.00	0.00	0.00	0.00	0	0	0	0	75.0000	0	0	0	0
111232	7.50	23.16	38.17	-25.04	1.0400	90.00	1	75.00	7.50	0.00	0.00	0.00	0.00	0.00	0.00	0	0	0	0	75.0000	0	0	0	0
111233	27.46	15.76	38.17	-22.40	1.0400	90.00	1	75.00	27.46	0.00	0.00	0.00	0.00	0.00	0.00	0	0	0	0	75.0000	0	0	0	0
111234	19.31	22.01	38.17	-20.50	1.0400	90.00	1	75.00	19.31	0.00	0.00	0.00	0.00	0.00	0.00	0	0	0	0	75.0000	0	0	0	0
111237	17.39	21.63	21.63	-10.78	1.0400	51.00	1	42.50	17.39	0.00	0.00	0.00	0.00	0.00	0.00	0	0	0	0	42.5000	0	0	0	0
111241	0.00	0.00	14.25	-8.08	1.0400	33.60	0	28.00	13.43	0.00	0.00	0.00	0.00	0.00	0.00	0	0	0	0	28.0000	0	0	0	0
111242	0.00	0.00	14.25	-9.25	1.0400	33.60	0	28.00	12.12	0.00	0.00	0.00	0.00	0.00	0.00	0	0	0	0	28.0000	0	0	0	0
111242	0.00	0.00	9.16	-5.82	1.0400	21.60	0	18.00	5.59	0.00	0.00	0.00	0.00	0.00	0.00	0	0	0	0	18.0000	0	0	0	0
111243	0.00	0.00	9.16	-5.59	1.0400	21.60	0	18.00	5.77	0.00	0.00	0.00	0.00	0.00	0.00	0	0	0	0	18.0000	0	0	0	0
111243	0.00	0.00	9.16	-6.07	1.0400	21.60	0	18.00	1.93	0.00	0.00	0.00	0.00	0.00	0.00	0	0	0	0	18.0000	0	0	0	0
111244	0.00	0.00	9.16	-6.13	1.0400	21.60	0	18.00	2.10	0.00	0.00	0.00	0.00	0.00	0.00	0	0	0	0	18.0000	0	0	0	0
111246	140.00	70.96	71.26	-39.11	1.0400	168.00	1	140.00	68.38	0.00	0.00	0.00	0.00	0.00	0.00	0	0	0	0	140.0000	0	0	0	0
111247	42.10	43.24	45.81	-22.96	1.0400	108.00	1	90.00	36.59	0.00	0.00	0.00	0.00	0.00	0.00	0	0	0	0	90.0000	0	0	0	0
111248	0.00	0.00	16.29	-9.57	1.0400	38.40	0	32.00	14.60	0.00	0.00	0.00	0.00	0.00	0.00	0	0	0	0	32.0000	0	0	0	0
111249	0.00	0.00	16.29	-10.33	1.0400	38.40	0	32.00	14.84	0.00	0.00	0.00	0.00	0.00	0.00	0	0	0	0	32.0000	0	0	0	0
111249	0.00	0.00	16.29	-9.32	1.0400	38.40	0	32.00	11.82	0.00	0.00	0.00	0.00	0.00	0.00	0	0	0	0	32.0000	0	0	0	0
111251	64.00	15.45	33.59	-22.39	1.0400	79.20	1	66.00	12.15	0.00	0.00	0.00	0.00	0.00	0.00	0	0	0	0	66.0000	0	0	0	0
111252	51.00	15.82	33.59	-20.06	1.0400	79.20	1	66.00	20.23	0.00	0.00	0.00	0.00	0.00	0.00	0	0	0	0	66.0000	0	0	0	0
111253	19.26	15.87	31.56	-19.86	1.0400	74.40	1	62.00	19.26	0.00	0.00	0.00	0.00	0.00	0.00	0	0	0	0	62.0000	0	0	0	0
111254	56.00	13.74	35.12	-18.26	1.0400	82.80	1	69.00	10.92	0.00	0.00	0.00	0.00	0.00	0.00	0	0	0	0	69.0000	0	0	0	0
111260	52.00	35.12	35.12	-22.98	1.0400	82.80	1	69.00	25.93	0.00	0.00	0.00	0.00	0.00	0.00	0	0	0	0	69.0000	0	0	0	0
111262	0.00	0.00	13.04	-12.05	1.0400	45.60	0	38.00	14.26	0.00	0.00	0.00	0.00	0.00	0.00	0	0	0	0	38.0000	0	0	0	0
111264	0.00	0.00	17.81	-9.49	1.0400	42.00	0	35.00	9.49	0.00	0.00	0.00	0.00	0.00	0.00	0	0	0	0	35.0000	0	0	0	0
111266	20.30	10.71	16.83	-15.71	1.0400	54.00	1	45.00	6.40	0.00	0.00	0.00	0.00	0.00	0.00	0	0	0	0	45.0000	0	0	0	0
111266	20.30	10.71	14.24	-13.58	1.0400	54.00	1	45.00	11.11	0.00	0.00	0.00	0.00	0.00	0.00	0	0	0	0	45.0000	0	0	0	0
111267	24.70	34.34	38.17	-20.63	1.0400	90.00	1	75.00	24.70	0.00	0.00	0.00	0.00	0.00	0.00	0	0	0	0	75.0000	0	0	0	0
111268	49.99	24.10	35.63	-18.38	1.0400	84.00	1	70.00	34.86	0.00	0.00	0.00	0.00	0.00	0.00	0	0	0	0	70.0000	0	0	0	0
111270	65.51	61.13	61.13	-37.48	1.0604	144.12	1	120.10	58.90	0.00	0.00	0.00	0.00	0.00	0.00	0	0	0	0	120.1000	0	0	0	0
111271	56.00	3.24	35.12	-17.45	1.0400	82.80	1	69.00	30.42	0.00	0.00	0.00	0.00	0.00	0.00	0	0	0	0	69.0000	0	0	0	0
111272	49.85	2.43	35.53	-23.45	1.0400	83.76	1	69.80	32.31	0.00	0.00	0.00	0.00	0.00	0.00	0	0	0	0	69.8000	0	0	0	0
111273	49.85	8.55	35.53	-24.08	1.0400	83.76	1	69.80	11.29	0.00	0.00	0.00	0.00	0.00	0.00	0	0	0	0	69.8000	0	0	0	0
111274	50.00	1.58	35.68	-18.43	1.0400	84.12	1	70.10	19.97	0.00	0.00	0.00	0.00	0.00	0.00	0	0	0	0	70.1000	0	0	0	0
111275	49.99	4.95	35.63	-20.08	1.0400	84.00	1	70.00	8.34	0.00	0.00	0.00	0.00	0.00	0.00	0	0	0	0	70.0000	0	0	0	0
111276	56.00	2.22	34.82	-17.90	1.0400	82.08	1	68.40	21.65	0.00	0.00	0.00	0.00	0.00	0.00	0	0	0	0	68.4000	0	0	0	0
111280	139.00	9.66	70.75	-35.41	1.0400	166.80	1	139.00	42.26	0.00	0.00	0.00	0.00	0.00	0.00	0	0	0	0	139.0000	0	0	0	0
111281	37.35	7.67	52.94	-26.52	1.0400	124.80	1	104.00	37.35	0.00	0.00	0.00	0.00	0.00	0.00	0	0	0	0	104.0000	0	0	0	0
111282	32.22	8.00	52.94	-29.59	1.0400	124.80	1	104.00	32.22	0.00	0.00	0.00	0.00	0.00	0.00	0	0	0	0	104.0000	0	0	0	0
111283	13.48	7.40	52.94	-28.22	1.0400	124.80	1	104.00	13.48	0.00	0.00	0.00	0.00	0.00	0.00	0	0	0	0	104.0000	0	0	0	0
111286	23.14	17.28	48.66	-32.33	1.0400	114.72	1	95.60	23.14	0.00	0.00	0.00	0.00	0.00	0.00	0	0	0	0	95.6000	0	0	0	0
111287	32.87	9.47	48.66	-24.43	1.0400	114.72	1	95.60	32.87	0.00	0.00	0.00	0.00	0.00	0.00	0	0	0	0	95.6000	0	0	0	0
111288	46.30	8.15	48.46	-26.93	1.0400	114.24	1	95.20	46.30	0.00	0.00	0.00	0.00	0.00	0.00	0	0	0	0	95.2000	0	0	0	0
111289	52.00	9.24	34.76	-19.32	1.0400	81.96	1	68.30	26.43	0.00	0.00	0.00	0.00	0.00	0.00	0	0	0	0	68.3000	0	0	0	0
111290	52.00	8.30	34.76	-18.60	1.0400	81.96	1	68.30	33.36	0.00	0.00	0.00	0.00	0.00	0.00	0	0	0	0	68.3000	0	0	0	0
111291	0.00	0.00	17.81	-10.98	1.0400	42.00	0	35.00	15.74	0.00	0.00	0.00	0.00	0.00	0.00	0	0	0	0	35.0000	0	0	0	0
111292	24.70	13.70	30.13	-19.35	1.0400	71.04	1	59.20	24.70	0.00	0.00	0.00	0.00	0.00	0.00	0	0	0	0	59.2000	0	0	0	0
111295	56.00	20.09	35.12	-18.16	1.0400	82.80	1	69.00	16.48	0.00	0.00	0.00	0.00	0.00	0.00	0	0	0	0	69.0000	0	0	0	0
111296	56.00	8.09	35.12	-21.25	1.0400	82.80	1	69.00	22.97	0.00	0.00	0.00	0.00	0.00	0.00	0	0	0	0	69.0000	0	0	0	0
111297	0.00	0.00	17.31	-9.12	1.0400	40.80	0	34.00	5.19	0.00	0.00	0.00	0.00	0.00	0.00	0	0	0	0	34.0000	0	0	0	0
111301	100.99	15.21	81.44	-54.23	1.0400	192.00	1	160.00	28.92	0.00	0.00	0.00	0.00	0.00	0.00	0	0	0	0	160.0000	0	0	0	0
111302	30.33	10.55	37.16	-21.88	1.0400	87.60	1	73.00	30.33	0.00	0.00	0.00	0.00	0.00	0.00	0	0	0	0	73.0000	0	0	0	0
111303	20.77	11.62	37.16	-24.81	1.0400	87.60	1	73.00	20.77	0.00	0.00	0.00	0.00	0.00	0.00	0	0	0	0	73.0000	0	0	0	0
111304	24.52	9.50	37.16	-21.09	1.0400	87.60	1	73.00	24.52	0.00	0.00	0.00	0.00	0.00	0.00	0	0	0	0	73.0000	0	0	0	0
111306	26.33	6.29	55.48	-36.09	1.0400	130.80	1	109.00	26.33	0.00	0.00	0.00	0.00	0.00	0.00	0	0	0	0	109.0000	0	0	0	0
111307	27.46	55.48	55.48	-30.52	1.0545	130.80	1	109.00	27.46	0.00	0.00	0.00	0.00	0.00	0.00	0	0	0	0	109.0000	0	0	0	0
111308	46.90	9.47	55.48	-34.66	1.0400	130.80	1	109.00	46.90	0.00	0.00	0.00	0.00	0.00	0.00	0	0	0	0	109.0000	0	0	0	0
111309	47.78	13.60	55.48	-37.92	1.0400	130.80	1	109.00	47.78	0.00	0.00	0.00	0.00	0.00	0.00	0	0	0	0	109.0000	0	0	0	0
111312	101.00	1.30	83.99	-47.10	1.0400	198.00	1	165.00	16.83	0.00	0.00	0.00	0.00	0.00	0.00	0	0	0	0	165.0000	0	0	0	0
111313	101.00	83.99	83.99	-51.29	1.0630	198.00	1	165.00	49.54	0.00	0.00	0.00	0.00	0.00	0.00	0	0	0	0	165.0000	0	0	0	0
111314	101.00	83.99	83.99	-53.86	1.0712	198.00	1	165.00	71.73	0.00	0.00	0.00	0.00	0.00	0.00	0	0	0	0	165.0000	0	0	0	0
111315	101.00	83.99	83.99	-47.67	1.0538	198.00	1	165.00	58.52	0.00	0.00	0.00	0.00	0.00	0.00	0	0	0	0	165.0000	0	0	0	0
111316	8.55	0.68	30.54	-16.52	1.0400	72.00	1	60.00	8.55	0.00	0.00	0.00	0.00	0.00	0.00	0	0	0	0	60.0000	0	0	0	0
111318	101.00	2.09	82.46	-48.35	1.0400	194.40	1	162.00	37.94	0.00	0.00	0.00	0.00	0.00	0.00	0	0	0	0	162.0000	0	0	0	0
111319	101.00	82.46	82.46	-46.29	1.0620	194.40	1	162.00	69.97	0.00	0.00	0.00	0.00	0.00	0.00	0	0	0	0	162.0000	0	0	0	0
111320	101.00	2.09	82.97	-54.72	1.0400	195.60	1	163.00	59.93	0.00	0.00	0.00	0.00	0.00	0.00	0	0	0	0	163.0000	0	0	0	0
111321	101.00	2.12	81.95	-42.94	1.0400	193.20	1	161.00	42.35	0.00	0.00	0.00	0.00	0.00	0.00	0	0	0	0	161.0000	0	0	0	0
111322	136.00	2.83	69.22	-34.05	1.0400	163.20	1	136.00	63.29	0.00	0.00	0.00	0.00	0.00	0.00	0	0	0	0	136.0000	0	0	0	0
111324	167.00	67.64	109.43	-65.43	1.0532	258.00	1	215.00	82.41	0.00	0.00	0.00	0.00	0.00	0.00	0	0	0	0	215.0000	0	0	0	0
111325	90.78	-0.11	94.16	-54.86	1.0400	222.00	1	185.00	90.78	0.00	0.00	0.00	0.00	0.00	0.00	0	0	0	0	185.0000	0	0	0	0
111326	184.94	2.73	94.16	-53.28	1.0400	222.00	1	185.00	44.07	0.00	0.00	0.00	0.00	0.00	0.00	0	0	0	0	185.0000	0	0	0	0
111327	66.98	-0.63	93.15	-46.34	1.0400	219.60	1	183.00	66.98	0.00	0.00	0.00	0.00	0.00	0.00	0	0	0	0	183.0000	0	0	0	0
111329	0.00	0.00	5.48	-4.02	1.0400	14.04	0	11.70	5.26	0.00	0.00	0.00	0.00	0.00	0.00	0	0	0	0	11.7000	0	0	0	0
111330	9.54	34.53	38.17	-21.38	1.0400	90.00	1	75.00	9.54	0.00	0.00	0.00	0.00	0.00	0.00	0	0	0	0	75.0000	0	0	0	0
111333	275.00	0.78	139.97	-95.08	1.0400	330.00	1	275.00	110.38	0.00	0.00	0.00	0.00	0.00	0.00	0	0	0	0	275.0000	0	0	0	0
111334	142.36	-1.40	89.07	-45.43	1.0400	210.00	1	175.00	74.33	0.00	0.00	0.00	0.00	0.00	0.00	0	0	0	0	175.0000	0	0	0	0
111335	0.00	0.00	89.07	-56.30	1.0400	210.00	0	175.00	77.27	0.00	0.00	0.00	0.00	0.00	0.00	0	0	0	0	175.0000	0	0	0	0
111336	153.00	0.49	89.07	-50.60	1.0400	210.00	1	175.00	38.81	0.00	0.00	0.00	0.00	0.00	0.00	0	0	0	0	175.0000	0	0	0	0
111339	95.32	98.24	98.24	-62.61	1.0617	231.60	1	193.00	95.32	0.00	0.00	0.00	0.00	0.00	0.00	0	0	0	0	193.0000	0	0	0	0
111340	138.65	3.54	84.49	-50.27	1.0400	199.20	1	166.00	37.65	0.00	0.00	0.00	0.00	0.00	0.00	0	0	0	0	166.0000	0	0	0	0
111341	138.65	84.49	84.49	-54.88	1.0596	199.20	1	166.00	44.21	0.00	0.00	0.00	0.00	0.00	0.00	0	0	0	0	166.0000	0	0	0	0
111343	10.31	11.30	19.34	-11.83	1.0400	45.60	1	38.00	10.31	0.00	0.00	0.00	0.00	0.00	0.00	0	0	0	0	38.0000	0	0	0	0
111344	18.13	7.32	19.34	-10.22	1.0400	45.60	1	38.00	18.13	0.00	0.00	0.00	0.00	0.00	0.00	0	0	0	0	38.0000	0	0	0	0
111344	5.07	7.32	19.34	-10.69	1.0400	45.60	1	38.00	5.07	0.00	0.00	0.00	0.00	0.00	0.00	0	0	0	0	38.0000	0	0	0	0
111345	6.14	19.34	19.34	-10.52	1.0400	45.60	1	38.00	6.14	0.00	0.00	0.00	0.00	0.00	0.00	0	0	0	0	38.0000	0	0	0	0
111347	279.00	36.68	143.54	-92.95	1.0488	338.40	1	282.00	37.51	0.00	0.00	0.00	0.00	0.00	0.00	0	0	0	0	282.0000	0	0	0	0
111348	152.81	0.82	86.43	-52.35	1.0400	203.76	1	169.80	24.10	0.00	0.00	0.00	0.00	0.00	0.00	0	0	0	0	169.8000	0	0	0	0
111349	152.81	-0.35	86.43	-49.18	1.0400	203.76	1	169.80	20.63	0.00	0.00	0.00	0.00	0.00	0.00	0	0	0	0	169.8000	0	0	0	0
111350	141.82	-0.84	86.43	-44.44	1.0400	203.76	1	169.80	35.46	0.00	0.00	0.00	0.00	0.00	0.00	0	0	0	0	169.8000	0	0	0	0
111351	152.81	-0.49	86.43	-47.08	1.0400	203.76	1	169.80	32.88	0.00	0.00	0.00	0.00	0.00	0.00	0	0	0	0	169.8000	0	0	0	0
111352	154.80	36.68	78.79	-53.15	1.0541	185.76	1	154.80	66.37	0.00	0.00	0.00	0.00	0.00	0.00	0	0	0	0	154.8000	0	0	0	0
111354	9.55	12.82	38.17	-20.54	1.0400	90.00	1	75.00	9.55	0.00	0.00	0.00	0.00	0.00	0.00	0	0	0	0	75.0000	0	0	0	0
111355	99.73	8.88	80.42	-43.08	1.0400	189.60	1	158.00	39.06	0.00	0.00	0.00	0.00	0.00	0.00	0	0	0	0	158.0000	0	0	0	0
111356	99.73	80.42	80.42	-51.16	1.0592	189.60	1	158.00	44.23	0.00	0.00	0.00	0.00	0.00	0.00	0	0	0	0	158.0000	0	0	0	0
111357	99.73	14.54	80.42	-45.23	1.0400	189.60	1	158.00	21.32	0.00	0.00	0.00	0.00	0.00	0.00	0	0	0	0	158.0000	0	0	0	0
111358	32.86	9.15	38.17	-19.95	1.0400	90.00	1	75.00	32.86	0.00	0.00	0.00	0.00	0.00	0.00	0	0	0	0	75.0000	0	0	0	0
111360	141.49	19.48	86.22	-56.22	1.0391	203.28	1	169.40	36.35	0.00	0.00	0.00	0.00	0.00	0.00	0	0	0	0	169.4000	0	0	0	0
111361	50.00	21.01	25.45	-16.43	1.0400	60.00	1	50.00	22.87	0.00	0.00	0.00	0.00	0.00	0.00	0	0	0	0	50.0000	0	0	0	0
111364	44.23	-0.10	49.88	-32.77	1.0400	117.60	1	98.00	44.23	0.00	0.00	0.00	0.00	0.00	0.00	0	0	0	0	98.0000	0	0	0	0
111365	33.19	-0.09	49.88	-24.97	1.0400	117.60	1	98.00	33.19	0.00	0.00	0.00	0.00	0.00	0.00	0	0	0	0	98.0000	0	0	0	0
111366	50.00	0.06	36.65	-24.55	1.0400	86.40	1	72.00	8.33	0.00	0.00	0.00	0.00	0.00	0.00	0	0	0	0	72.0000	0	0	0	0
111367	50.00	0.14	36.65	-22.87	1.0400	86.40	1	72.00	25.74	0.00	0.00	0.00	0.00	0.00	0.00	0	0	0	0	72.0000	0	0	0	0
111368	50.00	0.07	36.65	-18.19	1.0400	86.40	1	72.00	13.50	0.00	0.00	0.00	0.00	0.00	0.00	0	0	0	0	72.0000	0	0	0	0
111369	50.00	0.08	36.65	-20.12	1.0400	86.40	1	72.00	10.13	0.00	0.00	0.00	0.00	0.00	0.00	0	0	0	0	72.0000	0	0	0	0
111372	153.00	25.27	87.55	-59.49	1.0452	206.40	1	172.00	74.41	0.00	0.00	0.00	0.00	0.00	0.00	0	0	0	0	172.0000	0	0	0	0
111373	101.00	-0.71	83.99	-46.18	1.0400	198.00	1	165.00	22.41	0.00	0.00	0.00	0.00	0.00	0.00	0	0	0	0	165.0000	0	0	0	0
111374	101.00	-0.92	83.99	-56.58	1.0400	198.00	1	165.00	66.80	0.00	0.00	0.00	0.00	0.00	0.00	0	0	0	0	165.0000	0	0	0	0
111376	0.00	0.00	6.26	-4.30	1.0400	14.76	0	12.30	2.28	0.00	0.00	0.00	0.00	0.00	0.00	0	0	0	0	12.3000	0	0	0	0
111378	48.00	24.43	24.43	-15.32	1.0400	57.60	1	48.00	6.91	0.00	0.00	0.00	0.00	0.00	0.00	0	0	0	0	48.0000	0	0	0	0
111382	12.81	37.67	37.67	-25.10	1.0400	88.80	1	74.00	12.81	0.00	0.00	0.00	0.00	0.00	0.00	0	0	0	0	74.0000	0	0	0	0
111384	0.00	0.00	6.81	-4.78	1.0400	16.80	0	14.00	4.91	0.00	0.00	0.00	0.00	0.00	0.00	0	0	0	0	14.0000	0	0	0	0
111386	49.99	35.63	35.63	-18.52	1.0400	84.00	1	70.00	32.63	0.00	0.00	0.00	0.00	0.00	0.00	0	0	0	0	70.0000	0	0	0	0
111390	220.95	43.97	240.50	-150.94	1.0498	567.00	1	472.50	220.95	0.00	0.00	0.00	0.00	0.00	0.00	0	0	0	0	472.5000	0	0	0	0
111391	331.90	43.97	168.94	-87.16	1.0501	398.28	1	331.90	51.41	0.00	0.00	0.00	0.00	0.00	0.00	0	0	0	0	331.9000	0	0	0	0
111392	335.30	43.97	170.67	-111.17	1.0479	402.36	1	335.30	156.21	0.00	0.00	0.00	0.00	0.00	0.00	0	0	0	0	335.3000	0	0	0	0
111395	7.28	4.66	27.49	-14.83	1.0400	64.80	1	54.00	7.28	0.00	0.00	0.00	0.00	0.00	0.00	0	0	0	0	54.0000	0	0	0	0
111396	10.18	7.58	27.49	-17.42	1.0400	64.80	1	54.00	10.18	0.00	0.00	0.00	0.00	0.00	0.00	0	0	0	0	54.0000	0	0	0	0
111397	19.57	7.13	27.49	-13.90	1.0400	64.80	1	54.00	19.57	0.00	0.00	0.00	0.00	0.00	0.00	0	0	0	0	54.0000	0	0	0	0
111398	24.34	4.07	27.49	-16.97	1.0400	64.80	1	54.00	24.34	0.00	0.00	0.00	0.00	0.00	0.00	0	0	0	0	54.0000	0	0	0	0
111399	14.99	9.68	27.49	-14.33	1.0400	64.80	1	54.00	14.99	0.00	0.00	0.00	0.00	0.00	0.00	0	0	0	0	54.0000	0	0	0	0
111400	18.36	9.22	27.49	-15.98	1.0400	64.80	1	54.00	18.36	0.00	0.00	0.00	0.00	0.00	0.00	0	0	0	0	54.0000	0	0	0	0
111402	45.00	22.90	22.90	-14.15	1.0400	54.00	1	45.00	13.77	0.00	0.00	0.00	0.00	0.00	0.00	0	0	0	0	45.0000	0	0	0	0
111402	45.00	22.90	22.90	-13.82	1.0400	54.00	1	45.00	10.04	0.00	0.00	0.00	0.00	0.00	0.00	0	0	0	0	45.0000	0	0	0	0
111404	117.00	51.81	59.55	-31.47	1.0405	140.40	1	117.00	41.90	0.00	0.00	0.00	0.00	0.00	0.00	0	0	0	0	117.0000	0	0	0	0
111408	0.00	0.00	3.25	-2.79	1.0400	12.00	0	10.00	0.00	0.00	0.00	0.00	0.00	0.00	0.00	0	0	0	0	10.0000	0	0	0	0
111410	0.00	0.00	4.49	-2.98	1.0400	12.00	0	10.00	0.00	0.00	0.00	0.00	0.00	0.00	0.00	0	0	0	0	10.0000	0	0	0	0
111412	0.00	0.00	3.76	-2.90	1.0400	12.00	0	10.00	0.00	0.00	0.00	0.00	0.00	0.00	0.00	0	0	0	0	10.0000	0	0	0	0
120434	46.00	8.47	23.41	-12.55	1.0400	55.20	1	46.00	4.60	0.00	0.00	0.00	0.00	0.00	0.00	0	0	0	0	46.0000	0	0	0	0
120434	46.00	8.47	23.41	-14.08	1.0400	55.20	1	46.00	7.34	0.00	0.00	0.00	0.00	0.00	0.00	0	0	0	0	46.0000	0	0	0	0
120435	0.00	0.00	23.41	-12.34	1.0400	55.20	0	46.00	9.75	0.00	0.00	0.00	0.00	0.00	0.00	0	0	0	0	46.0000	0	0	0	0
120436	46.00	20.69	23.41	-12.46	1.0400	55.20	1	46.00	7.55	0.00	0.00	0.00	0.00	0.00	0.00	0	0	0	0	46.0000	0	0	0	0
120438	299.96	24.41	213.78	-117.09	1.0447	504.00	1	420.00	184.51	0.00	0.00	0.00	0.00	0.00	0.00	0	0	0	0	420.0000	0	0	0	0
120439	289.96	24.41	208.69	-111.76	1.0445	492.00	1	410.00	112.96	0.00	0.00	0.00	0.00	0.00	0.00	0	0	0	0	410.0000	0	0	0	0
120442	48.00	-0.39	24.43	-12.72	1.0400	57.60	1	48.00	12.14	0.00	0.00	0.00	0.00	0.00	0.00	0	0	0	0	48.0000	0	0	0	0
120442	48.00	-0.39	24.43	-13.25	1.0400	57.60	1	48.00	13.89	0.00	0.00	0.00	0.00	0.00	0.00	0	0	0	0	48.0000	0	0	0	0
120443	48.00	-0.08	24.43	-13.12	1.0400	57.60	1	48.00	17.18	0.00	0.00	0.00	0.00	0.00	0.00	0	0	0	0	48.0000	0	0	0	0
120443	47.00	-0.08	23.92	-14.97	1.0400	56.40	1	47.00	17.96	0.00	0.00	0.00	0.00	0.00	0.00	0	0	0	0	47.0000	0	0	0	0
120444	222.80	-29.59	209.71	-105.73	1.0326	494.40	1	412.00	57.33	0.00	0.00	0.00	0.00	0.00	0.00	0	0	0	0	412.0000	0	0	0	0
120445	139.00	-0.48	117.07	-74.42	1.0400	276.00	1	230.00	83.66	0.00	0.00	0.00	0.00	0.00	0.00	0	0	0	0	230.0000	0	0	0	0
120446	190.95	-29.59	110.45	-55.78	1.0333	260.40	1	217.00	48.81	0.00	0.00	0.00	0.00	0.00	0.00	0	0	0	0	217.0000	0	0	0	0
120449	8.40	1.87	4.28	-2.89	1.0400	10.08	1	8.40	2.73	0.00	0.00	0.00	0.00	0.00	0.00	0	0	0	0	8.4000	0	0	0	0
120449	8.40	1.87	4.28	-2.86	1.0400	10.08	1	8.40	3.98	0.00	0.00	0.00	0.00	0.00	0.00	0	0	0	0	8.4000	0	0	0	0
120450	8.40	-0.79	4.28	-2.65	1.0400	10.08	1	8.40	3.63	0.00	0.00	0.00	0.00	0.00	0.00	0	0	0	0	8.4000	0	0	0	0
120450	8.40	-0.79	4.28	-2.58	1.0400	10.08	1	8.40	4.14	0.00	0.00	0.00	0.00	0.00	0.00	0	0	0	0	8.4000	0	0	0	0
120451	0.00	0.00	4.28	-2.18	1.0400	10.08	0	8.40	3.44	0.00	0.00	0.00	0.00	0.00	0.00	0	0	0	0	8.4000	0	0	0	0
120451	8.40	4.28	4.28	-2.88	1.0400	10.08	1	8.40	1.32	0.00	0.00	0.00	0.00	0.00	0.00	0	0	0	0	8.4000	0	0	0	0
120452	8.40	4.28	4.28	-2.72	1.0400	10.08	1	8.40	2.60	0.00	0.00	0.00	0.00	0.00	0.00	0	0	0	0	8.4000	0	0	0	0
120452	0.00	0.00	4.28	-2.86	1.0400	10.08	0	8.40	2.89	0.00	0.00	0.00	0.00	0.00	0.00	0	0	0	0	8.4000	0	0	0	0
120453	8.40	4.28	4.28	-2.31	1.0400	10.08	1	8.40	3.04	0.00	0.00	0.00	0.00	0.00	0.00	0	0	0	0	8.4000	0	0	0	0
120454	8.40	-0.97	4.28	-2.26	1.0400	10.08	1	8.40	2.48	0.00	0.00	0.00	0.00	0.00	0.00	0	0	0	0	8.4000	0	0	0	0
120454	8.40	-0.97	4.28	-2.47	1.0400	10.08	1	8.40	1.26	0.00	0.00	0.00	0.00	0.00	0.00	0	0	0	0	8.4000	0	0	0	0
120455	8.40	2.87	4.28	-2.57	1.0400	10.08	1	8.40	2.19	0.00	0.00	0.00	0.00	0.00	0.00	0	0	0	0	8.4000	0	0	0	0
120455	8.40	2.87	4.28	-2.70	1.0400	10.08	1	8.40	4.13	0.00	0.00	0.00	0.00	0.00	0.00	0	0	0	0	8.4000	0	0	0	0
120456	8.40	-1.07	4.28	-2.88	1.0400	10.08	1	8.40	1.47	0.00	0.00	0.00	0.00	0.00	0.00	0	0	0	0	8.4000	0	0	0	0
120456	8.40	-1.07	4.28	-2.45	1.0400	10.08	1	8.40	3.36	0.00	0.00	0.00	0.00	0.00	0.00	0	0	0	0	8.4000	0	0	0	0
120457	8.40	4.02	4.28	-2.10	1.0400	10.08	1	8.40	1.35	0.00	0.00	0.00	0.00	0.00	0.00	0	0	0	0	8.4000	0	0	0	0
120457	8.40	4.02	4.28	-2.31	1.0400	10.08	1	8.40	2.04	0.00	0.00	0.00	0.00	0.00	0.00	0	0	0	0	8.4000	0	0	0	0
120458	8.40	-0.71	4.28	-2.41	1.0400	10.08	1	8.40	3.46	0.00	0.00	0.00	0.00	0.00	0.00	0	0	0	0	8.4000	0	0	0	0
120458	8.40	-0.71	4.28	-2.84	1.0400	10.08	1	8.40	1.34	0.00	0.00	0.00	0.00	0.00	0.00	0	0	0	0	8.4000	0	0	0	0
120459	8.40	-0.97	4.28	-2.32	1.0400	10.08	1	8.40	1.71	0.00	0.00	0.00	0.00	0.00	0.00	0	0	0	0	8.4000	0	0	0	0
120459	8.40	-0.97	4.28	-2.52	1.0400	10.08	1	8.40	3.28	0.00	0.00	0.00	0.00	0.00	0.00	0	0	0	0	8.4000	0	0	0	0
120460	8.40	2.92	4.28	-2.85	1.0400	10.08	1	8.40	4.12	0.00	0.00	0.00	0.00	0.00	0.00	0	0	0	0	8.4000	0	0	0	0
120460	8.40	2.92	4.28	-2.13	1.0400	10.08	1	8.40	2.73	0.00	0.00	0.00	0.00	0.00	0.00	0	0	0	0	8.4000	0	0	0	0
...
];

%% generator cost data
mpc.gencost = [
1	0	0	11	94.00	4308.47	271.00	12421.22	378.00	17446.28	462.00	21486.80	486.00	22668.08	487.00	22718.44	692.00	38071.59	693.00	38146.48	715.00	39860.04	715.01	39860.82	746.00	42274.61
1	0	0	11	94.00	4314.60	271.00	12438.90	378.00	17471.11	462.00	21517.39	486.00	22700.35	487.00	22750.78	692.00	38125.78	693.00	38200.78	715.00	39916.78	715.01	39917.56	749.00	42568.78
1	0	0	11	15.00	613.92	20.00	818.56	24.00	986.06	28.00	1156.77	32.00	1330.82	36.00	1508.40	40.00	1689.61	46.00	1967.17	52.00	2253.79	52.01	2254.28	54.00	2352.52
1	0	0	11	15.00	615.37	20.00	820.50	24.00	988.40	28.00	1159.51	32.00	1333.98	36.00	1511.98	40.00	1693.62	46.00	1971.84	52.00	2259.14	52.01	2259.63	54.00	2358.10
1	0	0	11	15.00	614.32	20.00	819.09	24.00	986.71	28.00	1157.53	32.00	1331.70	36.00	1509.39	40.00	1690.72	46.00	1968.46	52.00	2255.27	52.01	2255.76	54.00	2354.07
1	0	0	10	14.98	149.05	49.92	496.70	49.93	496.80	49.94	496.90	49.95	497.00	49.96	497.10	49.97	497.20	49.98	497.30	49.99	497.40	50.00	497.50	0	0
1	0	0	10	29.99	1404.18	31.99	1497.83	36.99	1740.67	40.99	1941.93	43.99	2098.15	47.99	2313.43	50.98	2479.58	63.98	3224.66	63.99	3225.25	64.00	3225.84	0	0
1	0	0	11	15.00	614.88	20.00	819.84	24.00	987.61	28.00	1158.58	32.00	1332.91	36.00	1510.76	40.00	1692.25	46.00	1970.25	52.00	2257.31	52.01	2257.81	54.00	2356.20
1	0	0	11	53.00	3213.35	55.00	3330.96	57.00	3451.26	59.00	3574.29	61.00	3697.91	63.00	3822.13	65.00	3946.95	67.00	4072.37	75.00	4576.45	75.01	4577.14	104.00	6576.48
1	0	0	11	53.00	3212.86	55.00	3330.45	57.00	3450.73	59.00	3573.73	61.00	3697.34	63.00	3821.54	65.00	3946.34	67.00	4071.74	75.00	4575.74	75.01	4576.43	104.00	6575.46
1	0	0	10	40.27	2366.41	41.79	2455.73	43.31	2547.10	44.83	2640.54	46.35	2734.43	47.87	2828.77	49.39	2923.58	50.91	3018.83	56.99	3401.68	57.00	3402.37	0	0
1	0	0	10	40.27	2366.63	41.79	2455.96	43.31	2547.33	44.83	2640.78	46.35	2734.68	47.87	2829.03	49.39	2923.84	50.91	3019.10	56.99	3401.99	57.00	3402.67	0	0
1	0	0	10	40.27	2370.89	41.79	2460.38	43.31	2551.92	44.83	2645.53	46.35	2739.60	47.87	2834.12	49.39	2929.10	50.91	3024.54	56.99	3408.11	57.00	3408.80	0	0
1	0	0	10	40.27	2368.00	41.79	2457.38	43.31	2548.81	44.83	2642.31	46.35	2736.26	47.87	2830.67	49.39	2925.54	50.91	3020.86	56.99	3403.96	57.00	3404.65	0	0
1	0	0	10	40.27	2369.49	41.79	2458.92	43.31	2550.41	44.83	2643.97	46.35	2737.98	47.87	2832.45	49.39	2927.37	50.91	3022.75	56.99	3406.10	57.00	3406.79	0	0
1	0	0	10	40.27	2372.38	41.79	2461.93	43.31	2553.53	44.83	2647.20	46.35	2741.32	47.87	2835.91	49.39	2930.95	50.91	3026.44	56.99	3410.26	57.00	3410.95	0	0
1	0	0	10	40.27	2369.49	41.79	2458.92	43.31	2550.41	44.83	2643.97	46.35	2737.98	47.87	2832.45	49.39	2927.37	50.91	3022.75	56.99	3406.10	57.00	3406.79	0	0
1	0	0	10	40.27	2367.31	41.79	2456.67	43.31	2548.07	44.83	2641.54	46.35	2735.47	47.87	2829.85	49.39	2924.69	50.91	3019.98	56.99	3402.97	57.00	3403.66	0	0
1	0	0	11	0.00	0.00	4.00	201.88	56.50	2852.14	56.51	2852.65	56.52	2853.15	56.53	2853.66	56.54	2854.16	56.55	2854.67	56.56	2855.17	56.57	2855.68	58.00	2927.88
1	0	0	11	0.00	0.00	4.00	201.85	56.50	2851.72	56.51	2852.22	56.52	2852.73	56.53	2853.23	56.54	2853.74	56.55	2854.24	56.56	2854.75	56.57	2855.25	58.00	2927.44
1	0	0	11	0.00	0.00	4.00	201.93	56.50	2852.75	56.51	2853.26	56.52	2853.76	56.53	2854.27	56.54	2854.77	56.55	2855.28	56.56	2855.78	56.57	2856.29	58.00	2928.51
1	0	0	11	0.00	0.00	4.00	202.25	56.50	2857.34	56.51	2857.85	56.52	2858.36	56.53	2858.86	56.54	2859.37	56.55	2859.87	56.56	2860.38	56.57	2860.88	58.00	2933.22
1	0	0	11	0.00	0.00	4.00	202.00	56.50	2853.81	56.51	2854.32	56.52	2854.82	56.53	2855.33	56.54	2855.83	56.55	2856.34	56.56	2856.84	56.57	2857.35	58.00	2929.59
1	0	0	11	0.00	0.00	4.00	201.95	56.50	2853.06	56.51	2853.56	56.52	2854.07	56.53	2854.57	56.54	2855.08	56.55	2855.58	56.56	2856.09	56.57	2856.59	58.00	2928.82
1	0	0	10	4.58	0.00	12.92	0.00	12.93	0.00	12.94	0.00	12.95	0.00	12.96	0.00	12.97	0.00	12.98	0.00	12.99	0.00	13.00	0.00	0	0
1	0	0	10	155.30	2087.23	272.76	3665.89	353.40	4797.27	418.10	5742.54	474.85	6605.14	524.62	7391.01	570.41	8141.05	613.22	8867.53	663.99	9759.06	664.00	9759.24	0	0
1	0	0	10	155.06	2084.01	272.35	3660.38	352.87	4790.08	417.47	5733.89	474.13	6595.12	523.83	7379.88	569.56	8128.94	612.30	8854.24	662.99	9744.35	663.00	9744.53	0	0
1	0	0	11	159.00	0.00	226.00	0.00	227.00	0.00	370.00	0.00	418.00	0.00	461.00	0.00	501.00	0.00	537.00	0.00	574.00	0.00	574.01	0.00	610.00	0.00
1	0	0	11	159.00	0.00	226.00	0.00	227.00	0.00	370.00	0.00	418.00	0.00	461.00	0.00	501.00	0.00	537.00	0.00	574.00	0.00	574.01	0.00	577.00	0.00
1	0	0	10	4.58	0.00	12.92	0.00	12.93	0.00	12.94	0.00	12.95	0.00	12.96	0.00	12.97	0.00	12.98	0.00	12.99	0.00	13.00	0.00	0	0
1	0	0	10	152.90	-1102.77	217.33	-1567.46	218.30	-1574.10	355.81	417.68	401.97	1103.36	443.32	1732.86	481.79	2332.74	516.41	2885.39	551.99	3466.50	552.00	3466.67	0	0
1	0	0	11	0.00	0.00	150.00	2338.50	151.00	2364.59	225.00	4300.43	226.00	4331.97	237.00	4750.96	238.00	4789.85	245.00	5131.66	246.00	5180.99	269.00	6550.64	273.00	6795.52
1	0	0	10	27.83	1391.03	62.63	3130.45	84.50	4250.94	101.39	5137.24	116.30	5938.14	129.23	6648.86	141.16	7319.41	152.09	7947.43	168.99	8939.61	169.00	8940.21	0	0
1	0	0	10	27.83	1389.62	62.63	3127.28	84.50	4246.63	101.39	5132.04	116.30	5932.13	129.23	6642.12	141.16	7312.00	152.09	7939.38	168.99	8930.56	169.00	8931.16	0	0
1	0	0	11	200.00	-10000.00	1250.00	-62500.00	1250.01	-62500.50	1250.02	-62501.00	1250.03	-62501.50	1250.04	-62502.00	1250.05	-62502.50	1250.06	-62503.00	1250.07	-62503.50	1250.08	-62504.00	1280.00	-63999.70
1	0	0	11	200.00	-10000.00	1250.00	-62500.00	1250.01	-62500.50	1250.02	-62501.00	1250.03	-62501.50	1250.04	-62502.00	1250.05	-62502.50	1250.06	-62503.00	1250.07	-62503.50	1250.08	-62504.00	1280.00	-63999.70
1	0	0	10	19.64	1301.53	26.21	1736.93	32.99	2189.56	39.76	2644.97	46.54	3104.45	53.31	3566.71	60.09	4033.11	66.86	4502.27	73.64	4975.59	81.00	5493.07	0	0
1	0	0	10	69.03	3319.47	69.95	3363.71	70.87	3408.17	71.79	3452.85	72.71	3497.76	73.63	3542.88	74.55	3588.23	75.47	3633.79	80.99	3908.52	81.00	3909.02	0	0
1	0	0	11	0.00	0.00	8.30	0.00	8.40	0.00	26.00	0.00	26.01	0.00	26.02	0.00	26.03	0.00	26.04	0.00	26.05	0.00	26.06	0.00	30.00	0.00
1	0	0	10	52.99	3204.00	54.99	3321.52	56.99	3441.74	58.99	3564.68	60.99	3688.21	62.99	3812.35	64.99	3937.08	66.99	4062.42	74.99	4566.14	75.00	4566.83	0	0
1	0	0	10	52.99	3208.15	54.99	3325.83	56.99	3446.21	58.99	3569.31	60.99	3693.01	62.99	3817.31	64.99	3942.21	66.99	4067.71	74.99	4572.11	75.00	4572.80	0	0
1	0	0	10	52.99	3213.61	54.99	3331.50	56.99	3452.09	58.99	3575.40	60.99	3699.32	62.99	3823.84	64.99	3948.96	66.99	4074.68	74.99	4579.96	75.00	4580.65	0	0
1	0	0	10	52.99	3209.97	54.99	3327.71	56.99	3448.16	58.99	3571.34	60.99	3695.11	62.99	3819.48	64.99	3944.45	66.99	4070.03	74.99	4574.72	75.00	4575.41	0	0
1	0	0	11	0.00	0.00	0.00	0.00	42.00	3566.04	42.01	3566.89	42.02	3567.74	42.03	3568.58	42.04	3569.43	42.05	3570.28	42.06	3571.13	42.07	3571.98	42.50	3608.49
1	0	0	11	0.00	0.00	8.30	0.00	8.40	0.00	26.00	0.00	26.01	0.00	26.02	0.00	26.03	0.00	26.04	0.00	26.05	0.00	26.06	0.00	28.00	0.00
1	0	0	11	0.00	0.00	8.30	0.00	8.40	0.00	26.00	0.00	26.01	0.00	26.02	0.00	26.03	0.00	26.04	0.00	26.05	0.00	26.06	0.00	28.00	0.00
1	0	0	10	4.98	0.00	17.92	0.00	17.93	0.00	17.94	0.00	17.95	0.00	17.96	0.00	17.97	0.00	17.98	0.00	17.99	0.00	18.00	0.00	0	0
1	0	0	10	4.98	0.00	17.92	0.00	17.93	0.00	17.94	0.00	17.95	0.00	17.96	0.00	17.97	0.00	17.98	0.00	17.99	0.00	18.00	0.00	0	0
1	0	0	10	4.98	0.00	17.92	0.00	17.93	0.00	17.94	0.00	17.95	0.00	17.96	0.00	17.97	0.00	17.98	0.00	17.99	0.00	18.00	0.00	0	0
1	0	0	10	4.98	0.00	17.92	0.00	17.93	0.00	17.94	0.00	17.95	0.00	17.96	0.00	17.97	0.00	17.98	0.00	17.99	0.00	18.00	0.00	0	0
1	0	0	11	18.00	874.64	40.00	1894.76	46.00	2174.42	47.00	2221.10	80.00	3761.83	95.00	4467.70	110.00	5176.13	120.00	5650.11	125.00	5887.65	135.00	6363.33	140.00	6601.72
1	0	0	11	35.00	1973.06	42.00	2353.60	42.10	2359.05	89.00	5881.93	89.01	5882.69	89.02	5883.44	89.03	5884.19	89.04	5884.94	89.05	5885.69	89.06	5886.44	90.00	5957.05
1	0	0	10	0.00	0.00	0.00	0.00	31.93	0.00	31.94	0.00	31.95	0.00	31.96	0.00	31.97	0.00	31.98	0.00	31.99	0.00	32.00	0.00	0	0
1	0	0	10	0.00	0.00	0.00	0.00	31.93	0.00	31.94	0.00	31.95	0.00	31.96	0.00	31.97	0.00	31.98	0.00	31.99	0.00	32.00	0.00	0	0
1	0	0	10	0.00	0.00	0.00	0.00	31.93	0.00	31.94	0.00	31.95	0.00	31.96	0.00	31.97	0.00	31.98	0.00	31.99	0.00	32.00	0.00	0	0
1	0	0	11	30.00	1452.92	32.00	1546.72	37.00	1789.97	41.00	1991.57	44.00	2148.05	48.00	2363.69	51.00	2530.67	64.00	3277.00	64.01	3277.59	64.02	3278.18	66.00	3395.32
1	0	0	11	30.00	1454.12	32.00	1548.00	37.00	1791.46	41.00	1993.23	44.00	2149.85	48.00	2365.67	51.00	2532.80	64.00	3279.76	64.01	3280.36	64.02	3280.95	66.00	3398.19
1	0	0	11	15.00	1113.45	40.00	2969.20	50.00	3777.75	61.00	4773.07	61.01	4774.03	61.02	4775.00	61.03	4775.97	61.04	4776.93	61.05	4777.89	61.06	4778.86	62.00	4869.58
1	0	0	11	30.00	1407.00	36.00	1688.40	42.00	1985.28	47.00	2245.53	52.00	2518.63	56.00	2747.43	60.00	2986.51	68.00	3485.23	68.01	3485.88	68.02	3486.53	69.00	3550.14
1	0	0	11	30.00	1408.71	36.00	1690.45	42.00	1987.69	47.00	2248.26	52.00	2521.69	56.00	2750.76	60.00	2990.13	68.00	3489.46	68.01	3490.11	68.02	3490.76	69.00	3554.45
1	0	0	11	0.00	0.00	4.00	0.00	7.00	0.00	10.00	0.00	13.00	0.00	20.00	0.00	27.00	0.00	30.00	0.00	36.00	0.00	36.01	0.00	38.00	0.00
1	0	0	10	0.00	0.00	0.00	0.00	34.93	0.00	34.94	0.00	34.95	0.00	34.96	0.00	34.97	0.00	34.98	0.00	34.99	0.00	35.00	0.00	0	0
1	0	0	11	0.00	0.00	20.20	1066.76	20.30	1072.04	40.30	3133.84	40.31	3134.88	40.32	3135.91	40.33	3136.94	40.34	3137.97	40.35	3139.00	40.36	3140.03	45.00	3618.41
1	0	0	11	0.00	0.00	20.20	1066.76	20.30	1072.04	40.30	3133.84	40.31	3134.88	40.32	3135.91	40.33	3136.94	40.34	3137.97	40.35	3139.00	40.36	3140.03	45.00	3618.41
1	0	0	10	52.99	3208.15	54.99	3325.83	56.99	3446.21	58.99	3569.31	60.99	3693.01	62.99	3817.31	64.99	3942.21	66.99	4067.71	74.99	4572.11	75.00	4572.80	0	0
1	0	0	10	30.00	1488.28	35.00	1736.32	39.99	1985.07	44.99	2248.59	49.99	2526.49	54.99	2818.91	59.99	3125.95	64.99	3461.03	69.99	3797.77	70.00	3798.51	0	0
1	0	0	10	39.70	2329.83	48.04	2802.42	56.77	3298.77	65.51	3799.09	74.24	4304.01	82.98	4816.50	91.71	5337.15	100.45	5868.90	109.18	6412.27	120.10	7109.56	0	0
1	0	0	11	30.00	1407.00	36.00	1688.40	42.00	1985.28	47.00	2245.53	52.00	2518.63	56.00	2747.43	60.00	2986.51	68.00	3485.23	68.01	3485.88	68.02	3486.53	69.00	3550.14
1	0	0	10	29.91	1480.47	34.89	1726.97	39.88	1975.16	44.87	2237.57	49.85	2513.72	54.84	2804.90	59.82	3110.03	64.81	3443.69	69.79	3778.32	69.80	3779.07	0	0
1	0	0	10	29.91	1483.13	34.89	1730.07	39.88	1978.70	44.87	2241.58	49.85	2518.23	54.84	2809.93	59.82	3115.60	64.81	3449.86	69.79	3785.10	69.80	3785.84	0	0
1	0	0	11	30.00	1484.99	35.00	1732.49	40.00	1981.19	45.00	2244.13	50.00	2521.41	55.00	2813.18	60.00	3119.55	65.00	3453.89	70.00	3789.89	70.01	3790.63	70.10	3797.32
1	0	0	10	30.00	1484.99	35.00	1732.49	39.99	1980.69	44.99	2243.63	49.99	2520.92	54.99	2812.69	59.99	3119.05	64.99	3453.40	69.99	3789.39	70.00	3790.13	0	0
1	0	0	11	30.00	1408.79	36.00	1690.55	42.00	1987.81	47.00	2248.39	52.00	2521.84	56.00	2750.93	60.00	2990.32	68.00	3489.68	68.01	3490.33	68.02	3490.98	68.40	3515.67
1	0	0	11	18.00	876.65	40.00	1899.23	46.00	2179.55	47.00	2226.34	80.00	3770.78	95.00	4478.35	110.00	5188.48	120.00	5663.61	125.00	5901.72	135.00	6378.54	139.00	6569.71
1	0	0	10	11.99	876.63	27.98	1916.62	28.98	1982.66	103.94	9866.95	103.95	9868.00	103.96	9869.06	103.97	9870.11	103.98	9871.16	103.99	9872.21	104.00	9873.26	0	0
1	0	0	10	11.99	875.86	27.98	1914.81	28.98	1980.79	103.94	9857.26	103.95	9858.31	103.96	9859.36	103.97	9860.41	103.98	9861.46	103.99	9862.51	104.00	9863.56	0	0
1	0	0	10	11.99	876.38	27.98	1916.03	28.98	1982.05	103.94	9863.77	103.95	9864.82	103.96	9865.87	103.97	9866.92	103.98	9867.98	103.99	9869.03	104.00	9870.08	0	0
1	0	0	10	0.00	65.98	95.52	88752.93	95.53	88762.21	95.54	88771.49	95.55	88780.78	95.56	88790.07	95.57	88799.35	95.58	88808.63	95.59	88817.92	95.60	88827.20	0	0
1	0	0	10	0.00	65.98	95.52	88762.89	95.53	88772.17	95.54	88781.46	95.55	88790.75	95.56	88800.03	95.57	88809.31	95.58	88818.60	95.59	88827.89	95.60	88837.17	0	0
1	0	0	11	0.00	65.98	95.00	88081.35	95.01	88090.62	95.02	88099.88	95.03	88109.14	95.04	88118.41	95.05	88127.68	95.06	88136.94	95.07	88146.20	95.08	88155.47	95.20	88266.65
1	0	0	11	30.00	1406.58	36.00	1687.89	42.00	1984.68	47.00	2244.85	52.00	2517.87	56.00	2746.60	60.00	2985.61	68.00	3484.18	68.01	3484.83	68.02	3485.47	68.30	3503.64
1	0	0	11	30.00	1407.00	36.00	1688.40	42.00	1985.28	47.00	2245.53	52.00	2518.63	56.00	2747.43	60.00	2986.51	68.00	3485.23	68.01	3485.88	68.02	3486.53	68.30	3504.70
1	0	0	10	0.00	0.00	0.00	0.00	34.93	0.00	34.94	0.00	34.95	0.00	34.96	0.00	34.97	0.00	34.98	0.00	34.99	0.00	35.00	0.00	0	0
1	0	0	10	29.56	1800.46	59.12	3600.91	59.13	3601.52	59.14	3602.13	59.15	3602.74	59.16	3603.35	59.17	3603.96	59.18	3604.57	59.19	3605.18	59.20	3605.79	0	0
1	0	0	11	30.00	1408.69	36.00	1690.42	42.00	1987.66	47.00	2248.22	52.00	2521.65	56.00	2750.72	60.00	2990.09	68.00	3489.41	68.01	3490.06	68.02	3490.71	69.00	3554.40
1	0	0	11	30.00	1407.00	36.00	1688.40	42.00	1985.28	47.00	2245.53	52.00	2518.63	56.00	2747.43	60.00	2986.51	68.00	3485.23	68.01	3485.88	68.02	3486.53	69.00	3550.14
1	0	0	10	0.00	0.00	0.00	0.00	33.93	0.00	33.94	0.00	33.95	0.00	33.96	0.00	33.97	0.00	33.98	0.00	33.99	0.00	34.00	0.00	0	0
1	0	0	10	27.00	1463.38	41.00	2165.42	55.00	2883.83	69.00	3618.61	82.99	4369.22	96.99	5136.73	99.99	5304.70	100.99	5361.86	159.99	9782.99	160.00	9783.74	0	0
1	0	0	10	51.58	3122.21	53.53	3236.84	55.47	3353.49	57.42	3473.40	59.37	3593.89	61.31	3714.34	63.26	3836.00	65.20	3957.62	72.99	4448.29	73.00	4448.98	0	0
1	0	0	10	51.58	3125.19	53.53	3239.93	55.47	3356.69	57.42	3476.72	59.37	3597.32	61.31	3717.89	63.26	3839.67	65.20	3961.41	72.99	4452.57	73.00	4453.26	0	0
1	0	0	10	51.58	3130.09	53.53	3245.01	55.47	3361.97	57.42	3482.19	59.37	3602.99	61.31	3723.76	63.26	3845.73	65.20	3967.66	72.99	4459.61	73.00	4460.31	0	0
1	0	0	10	34.68	2207.13	34.78	2213.32	39.54	2507.87	44.49	2815.61	49.45	3125.46	54.40	3436.22	59.36	3749.10	64.31	4062.83	64.41	4069.20	109.00	7413.45	0	0
1	0	0	10	34.68	2208.39	34.78	2214.58	39.54	2509.30	44.49	2817.23	49.45	3127.26	54.40	3438.20	59.36	3751.26	64.31	4065.18	64.41	4071.55	109.00	7417.76	0	0
1	0	0	10	34.68	2207.13	34.78	2213.32	39.54	2507.87	44.49	2815.61	49.45	3125.46	54.40	3436.22	59.36	3749.10	64.31	4062.83	64.41	4069.20	109.00	7413.45	0	0
1	0	0	10	34.68	2210.43	34.78	2216.62	39.54	2511.63	44.49	2819.84	49.45	3130.17	54.40	3441.41	59.36	3754.76	64.31	4068.98	64.41	4075.35	109.00	7424.74	0	0
1	0	0	11	27.00	1464.15	41.00	2166.60	55.00	2885.42	69.00	3620.62	83.00	4372.19	97.00	5140.14	100.00	5308.21	101.00	5365.40	160.00	9789.07	160.01	9789.82	165.00	10163.95
1	0	0	11	27.00	1465.60	41.00	2168.79	55.00	2888.38	69.00	3624.36	83.00	4376.74	97.00	5145.50	100.00	5313.75	101.00	5371.01	160.00	9799.39	160.01	9800.14	165.00	10174.67
1	0	0	11	27.00	1464.56	41.00	2167.22	55.00	2886.26	69.00	3621.68	83.00	4373.48	97.00	5141.66	100.00	5309.78	101.00	5366.99	160.00	9791.99	160.01	9792.74	165.00	10166.99
1	0	0	11	27.00	1466.30	41.00	2169.86	55.00	2889.82	69.00	3626.19	83.00	4378.95	97.00	5148.12	100.00	5316.46	101.00	5373.74	160.00	9804.42	160.01	9805.17	165.00	10179.90
1	0	0	10	29.96	1822.39	59.92	3644.78	59.93	3645.39	59.94	3646.00	59.95	3646.61	59.96	3647.22	59.97	3647.82	59.98	3648.43	59.99	3649.04	60.00	3649.65	0	0
1	0	0	11	27.00	1463.44	41.00	2165.53	55.00	2883.97	69.00	3618.79	83.00	4369.97	97.00	5137.52	100.00	5305.50	101.00	5362.66	160.00	9784.02	160.01	9784.77	162.00	9933.89
1	0	0	11	27.00	1466.28	41.00	2169.84	55.00	2889.79	69.00	3626.15	83.00	4378.90	97.00	5148.06	100.00	5316.39	101.00	5373.67	160.00	9804.30	160.01	9805.05	162.00	9954.49
1	0	0	11	27.00	1466.64	41.00	2170.38	55.00	2890.53	69.00	3627.07	83.00	4380.03	97.00	5149.39	100.00	5317.77	101.00	5375.07	160.00	9806.86	160.01	9807.61	163.00	10032.21
1	0	0	11	27.00	1463.33	41.00	2165.35	55.00	2883.73	69.00	3618.48	83.00	4369.60	97.00	5137.08	100.00	5305.04	101.00	5362.20	160.00	9783.17	160.01	9783.92	161.00	9858.10
1	0	0	11	18.00	916.17	40.00	1937.89	46.00	2217.97	47.00	2264.73	80.00	3807.86	95.00	4514.84	110.00	5224.37	120.00	5699.09	125.00	5937.00	135.00	6413.42	136.00	6461.17
1	0	0	11	85.00	3461.32	97.00	3944.29	111.00	4539.66	125.00	5174.76	139.00	5851.98	153.00	6573.83	167.00	7342.84	181.00	8161.51	195.00	9032.38	214.50	10321.39	215.00	10357.31
1	0	0	10	0.00	75.71	33.71	1968.56	34.68	2024.38	184.94	10678.33	184.95	10678.96	184.96	10679.59	184.97	10680.21	184.98	10680.84	184.99	10681.46	185.00	10682.09	0	0
1	0	0	10	0.00	75.71	33.71	1963.20	34.68	2018.87	184.94	10648.36	184.95	10648.99	184.96	10649.61	184.97	10650.23	184.98	10650.86	184.99	10651.48	185.00	10652.11	0	0
1	0	0	10	0.00	75.71	33.35	1943.94	34.30	1998.49	182.94	10539.03	182.95	10539.66	182.96	10540.28	182.97	10540.90	182.98	10541.53	182.99	10542.15	183.00	10542.78	0	0
1	0	0	11	0.00	0.00	10.00	0.00	10.10	0.00	11.00	0.00	11.01	0.00	11.02	0.00	11.03	0.00	11.04	0.00	11.05	0.00	11.06	0.00	11.70	0.00
1	0	0	10	52.99	3208.15	54.99	3325.83	56.99	3446.21	58.99	3569.31	60.99	3693.01	62.99	3817.31	64.99	3942.21	66.99	4067.71	74.99	4572.11	75.00	4572.80	0	0
1	0	0	10	0.00	44.87	147.85	2901.64	148.84	2929.69	207.97	4608.26	208.96	4640.22	218.82	5030.13	219.80	5069.52	227.69	5435.85	228.67	5481.86	275.00	8064.98	0	0
1	0	0	11	28.00	1475.24	63.00	3224.66	85.00	4351.81	102.00	5243.89	117.00	6049.62	130.00	6764.19	142.00	7438.68	153.00	8070.72	170.00	9068.78	170.01	9069.38	175.00	9369.78
1	0	0	11	28.00	0.00	63.00	0.00	85.00	0.00	102.00	0.00	117.00	0.00	130.00	0.00	142.00	0.00	153.00	0.00	170.00	0.00	170.01	0.00	175.00	0.00
1	0	0	11	28.00	1472.56	63.00	3218.63	85.00	4343.63	102.00	5233.99	117.00	6038.19	130.00	6751.39	142.00	7424.58	153.00	8055.42	170.00	9051.56	170.01	9052.16	175.00	9351.98
1	0	0	11	0.00	75.71	35.00	2039.69	36.00	2097.20	192.00	11075.78	192.01	11076.40	192.02	11077.03	192.03	11077.66	192.04	11078.28	192.05	11078.91	192.06	11079.53	193.00	11138.29
1	0	0	10	27.34	1475.06	61.51	3181.85	82.99	4281.63	99.59	5152.13	114.24	5938.55	126.93	6635.61	138.65	7293.92	149.39	7910.61	165.99	8884.53	166.00	8885.13	0	0
1	0	0	10	27.34	1475.90	61.51	3183.74	82.99	4284.19	99.59	5155.23	114.24	5942.13	126.93	6639.61	138.65	7298.33	149.39	7915.40	165.99	8889.92	166.00	8890.52	0	0
1	0	0	10	0.00	60.87	0.00	60.87	37.93	2560.75	37.94	2561.41	37.95	2562.07	37.96	2562.73	37.97	2563.39	37.98	2564.05	37.99	2564.71	38.00	2565.37	0	0
1	0	0	10	0.00	60.87	0.00	60.87	37.93	2567.56	37.94	2568.22	37.95	2568.88	37.96	2569.54	37.97	2570.20	37.98	2570.86	37.99	2571.52	38.00	2572.19	0	0
1	0	0	10	0.00	60.87	0.00	60.87	37.93	2564.25	37.94	2564.91	37.95	2565.57	37.96	2566.23	37.97	2566.89	37.98	2567.55	37.99	2568.21	38.00	2568.87	0	0
1	0	0	10	0.00	60.87	0.00	60.87	37.93	2564.25	37.94	2564.91	37.95	2565.57	37.96	2566.23	37.97	2566.89	37.98	2567.55	37.99	2568.21	38.00	2568.87	0	0
1	0	0	11	0.00	44.87	150.00	2944.50	151.00	2972.84	211.00	4676.87	212.00	4709.17	222.00	5104.80	223.00	5145.01	231.00	5516.61	232.00	5563.58	279.00	8185.25	282.00	8361.72
1	0	0	10	27.97	1471.17	62.92	3214.88	84.90	4338.94	101.87	5227.80	116.86	6031.52	129.84	6743.68	141.82	7415.81	152.81	8046.11	169.79	9041.16	169.80	9041.76	0	0
...